LAMMPS (2 Aug 2019)
# lammps code to equilibrate pmma system
# method adopted from the paper "Toughening of graphene based polymer nanocomposite via tuning chemical functionalization"
# after equilibration create crack and perform tension test
# pmma pnc system has been functionalized - 40 % of -OH functionalization
# cnt is functionalized with -OH group (hydrogen bonding)

units		real
atom_style 	charge
boundary 	p p p
read_data       pmma_pnc_funct.data
  orthogonal box = (0.380437 1.69751 1.37789) to (50.3804 51.6975 101.378)
  reading atoms ...
  26978 atoms

pair_style	reax/c control_file lgvdw yes
pair_coeff	* * ffield.reax.lg C C H O H C C C O O C C
Reading potential file ffield.reax.lg with DATE: 2012-01-06

neighbor	4 bin
neigh_modify	every 10 delay 0 check no

thermo 100
thermo_style custom step atoms temp press pe ke etotal vol density lx ly lz      #output variables

fix std all qeq/reax 1 0.0 10.0 1e-6 reax/c
min_style	 cg							#conjugate gradient minimization
minimize	 1.0e-6 1.0e-8 10000 100000
  update every 1 steps, delay 0 steps, check yes
Step Atoms Temp Press PotEng KinEng TotEng Volume Density Lx Ly Lz
0    26978            0    295126.56   -2815995.7            0   -2815995.7       250000    1.2137925           50           50          100
Loop time of 42.6341 on 28 procs for 50 steps with 26978 atoms

Minimization stats:
  Stopping criterion = energy tolerance
  Energy initial, next-to-last, final =
  Force two-norm initial, final = 40312.8 3256.5
  Force max component initial, final = 1056.28 582.378
  Final line search alpha, max atom move = 4.29018e-05 0.0249851
  Iterations, force evaluations = 50 130

#set of equilibrations to reduce the energy of the system

reset_timestep 0
timestep 0.25
fix npt_equi all npt temp 300.0 300.0 25.0 iso 1.0 1.0 250.0
#fix bd all reax/c/bonds 500 bonds.reaxc_eqbn
dump npt_dump all custom 500 dump.npt id type x y z
run 200000
Step Atoms Temp Press PotEng KinEng TotEng Volume Density Lx Ly Lz
0    26978            0    8184.2832     -2959722            0     -2959722       250000    1.2137925           50           50          100
Averages over the last 1001 of 2001 rows, steps 100000 to 200000:
Atoms Temp Press PotEng KinEng TotEng Volume Density Lx Ly Lz
26978 299.913 0.972504 -2.95264e+06 24117 -2.92852e+06 255177 1.1892 50.3427 50.3427 100.685
Loop time of 56719.1 on 28 procs for 200000 steps with 26978 atoms

write_restart	restart.npt_equi
unfix npt_equi
#unfix bd
undump npt_dump

Please see the log.cite file for references relevant to this simulation
