LAMMPS (2 Aug 2019)
# lammps code to equilibrate pmma system
# method adopted from the paper "Toughening of graphene based polymer nanocomposite via tuning chemical functionalization"
# after equilibration create crack and perform tension test
# pmma pnc system has been functionalized - 15 % of -OH functionalization
# cnt is functionalized with -OH group (hydrogen bonding)

units		real
atom_style 	charge
boundary 	p p p
read_data       pmma_pnc_funct.data
  orthogonal box = (-0.709532 -0.0364514 0.00952599) to (49.2905 49.9635 100.01)
  reading atoms ...
  26905 atoms

pair_style	reax/c control_file lgvdw yes
pair_coeff	* * ffield.reax.lg C C H O H C C C O O C C
Reading potential file ffield.reax.lg with DATE: 2012-01-06

neighbor	4 bin
neigh_modify	every 10 delay 0 check no

thermo 100
thermo_style custom step atoms temp press pe ke etotal vol density lx ly lz      #output variables

fix std all qeq/reax 1 0.0 10.0 1e-6 reax/c
min_style	 cg							#conjugate gradient minimization
minimize	 1.0e-6 1.0e-8 10000 100000
  update every 1 steps, delay 0 steps, check yes
Step Atoms Temp Press PotEng KinEng TotEng Volume Density Lx Ly Lz
0    26905            0    307562.24   -2823964.2            0   -2823964.2       250000    1.2068361           50           50          100
Loop time of 67.0644 on 28 procs for 64 steps with 26905 atoms

Minimization stats:
  Stopping criterion = energy tolerance
  Energy initial, next-to-last, final =
  Force two-norm initial, final = 39153.3 1162.55
  Force max component initial, final = 1054.64 154.231
  Final line search alpha, max atom move = 5.72522e-05 0.00883005
  Iterations, force evaluations = 64 198

#set of equilibrations to reduce the energy of the system

reset_timestep 0
timestep 0.25
fix npt_equi all npt temp 300.0 300.0 25.0 iso 1.0 1.0 250.0
#fix bd all reax/c/bonds 500 bonds.reaxc_eqbn
dump npt_dump all custom 500 dump.npt id type x y z
run 200000
Step Atoms Temp Press PotEng KinEng TotEng Volume Density Lx Ly Lz
0    26905            0   -704.40103   -2967484.2            0   -2967484.2       250000    1.2068361           50           50          100
Averages over the last 1001 of 2001 rows, steps 100000 to 200000:
Atoms Temp Press PotEng KinEng TotEng Volume Density Lx Ly Lz
26905 300.101 -11.9748 -2.95538e+06 24066.8 -2.93132e+06 253886 1.18837 50.2577 50.2577 100.515
Loop time of 56803.2 on 28 procs for 200000 steps with 26905 atoms

write_restart	restart.npt_equi
unfix npt_equi
#unfix bd
undump npt_dump

Please see the log.cite file for references relevant to this simulation
