LAMMPS (2 Aug 2019)
# lammps code to simulate tension test on RVE of nanocomposite with crack
# crack needs to be initiated first
# system is already equilibrated
# delete some atoms from a region to intiate a crack
# 40 % functionalized cnt with -OH group
# no cnt fix during equilibration in MS
# load equilibrated structure

read_restart    restart.npt_equi
  restoring atom style charge from restart
  orthogonal box = (0.264398 1.58147 1.14581) to (50.4965 51.8135 101.61)
  pair style reax/c stores no restart info
  26978 atoms
  read_restart CPU = 0.140229 secs

# ReaxFF potential to define interatomic interactions

pair_style	reax/c control_file lgvdw yes
pair_coeff	* * ffield.reax.lg C C H O H C C C O O C C
Reading potential file ffield.reax.lg with DATE: 2012-01-06

neighbor	4 bin
neigh_modify	every 10 delay 0 check no

thermo 100
thermo_style custom step atoms temp press pe ke etotal vol density lx ly lz      #output variables

compute pnc_temp all temp
compute pnc_pe all pe/atom
compute pnc_stress all stress/atom pnc_temp pair bond
compute pnc_str all reduce sum c_pnc_stress[3]

variable tmpz equal "lz"
variable L0z equal 100.464157593733
variable tmpx equal "lx"
variable L0x equal 50.2320787968664
variable tmpy equal "ly"
variable L0y equal 50.2320787968664

# define groups of atoms to delete

fix std all qeq/reax 1 0.0 10.0 1e-6 reax/c

region atoms_for_deletion block EDGE 16.5 EDGE EDGE 49.554905 52.054905              # NOTE: box size will change after equilibration
delete_atoms region atoms_for_deletion
Deleted 225 atoms, new total = 26753
reset_ids
Unused restart file global fix info:
  fix style: npt, fix ID: npt_equi
  update every 10 steps, delay 0 steps, check no

reset_timestep 0
timestep 0.25
thermo_style custom step atoms temp press pe ke etotal vol density lx ly lz
fix 1 all npt temp 300.0 300.0 25.0 x 0.0 0.0 250.0 y 0.0 0.0 250.0 couple xy
fix 2 all deform 1 z erate 0.00001 units box
fix bd all reax/c/bonds 1000 bonds.reaxc
dump deform1 all custom 1000 dump.deform id type x y z

variable strainz equal "(lz-v_L0z)/v_L0z"
variable strainx equal "(lx-v_L0x)/v_L0x"
variable strainy equal "(ly-v_L0y)/v_L0y"
variable stressz equal "-pzz/10000"
variable p1 equal "v_stressz"
variable p2 equal "v_strainz"
variable p3 equal "v_strainx"
variable p4 equal "v_strainy"

run 600000
Step Atoms Temp Press PotEng KinEng TotEng Volume Density Lx Ly Lz
0    26753    298.50058    178.92877   -2921849.7    23803.221   -2898046.5    253497.37    1.1876739    50.232079    50.232079    100.46416
Averages over the last 3001 of 6001 rows, steps 300000 to 600000:
Atoms Temp Press PotEng KinEng TotEng Volume Density Lx Ly Lz
26753 300.002 -1.82916 -2.92741e+06 23923 -2.90348e+06 511060 0.595213 48.9301 48.9301 213.486
Loop time of 212896 on 28 procs for 600000 steps with 26753 atoms

write_restart restart.after_deform
unfix 1
unfix 2
unfix 3
unfix std
unfix bd

Please see the log.cite file for references relevant to this simulation
