LAMMPS (2 Aug 2019)
# lammps code to equilibrate pmma system
# method adopted from the paper "Toughening of graphene based polymer nanocomposite via tuning chemical functionalization"
# after equilibration create crack and perform tension test
# pmma pnc system has been functionalized - 30 % of -OH functionalization
# cnt is functionalized with -OH group (hydrogen bonding)

units		real
atom_style 	charge
boundary 	p p p
read_data       pmma_pnc_funct.data
  orthogonal box = (0.820614 -0.188365 2.36829) to (50.8206 49.8116 102.368)
  reading atoms ...
  26858 atoms

pair_style	reax/c control_file lgvdw yes
pair_coeff	* * ffield.reax.lg C C H O H C C C O O C C
Reading potential file ffield.reax.lg with DATE: 2012-01-06

neighbor	4 bin
neigh_modify	every 10 delay 0 check no

thermo 100
thermo_style custom step atoms temp press pe ke etotal vol density lx ly lz      #output variables

fix std all qeq/reax 1 0.0 10.0 1e-6 reax/c
min_style	 cg							#conjugate gradient minimization
minimize	 1.0e-6 1.0e-8 10000 100000
  update every 1 steps, delay 0 steps, check yes
Step Atoms Temp Press PotEng KinEng TotEng Volume Density Lx Ly Lz
0    26858            0    297331.23     -2811962            0     -2811962       250000    1.2070145           50           50          100
Loop time of 47.1272 on 28 procs for 53 steps with 26858 atoms

Minimization stats:
  Stopping criterion = energy tolerance
  Energy initial, next-to-last, final =
  Force two-norm initial, final = 39477.2 4044.34
  Force max component initial, final = 1154.26 305.242
  Final line search alpha, max atom move = 0.000161159 0.0491925
  Iterations, force evaluations = 53 135

#set of equilibrations to reduce the energy of the system

reset_timestep 0
timestep 0.25
fix npt_equi all npt temp 300.0 300.0 25.0 iso 1.0 1.0 250.0
#fix bd all reax/c/bonds 500 bonds.reaxc_eqbn
dump npt_dump all custom 500 dump.npt id type x y z
run 200000
Step Atoms Temp Press PotEng KinEng TotEng Volume Density Lx Ly Lz
0    26858            0   -2092.7368     -2955269            0     -2955269       250000    1.2070145           50           50          100
Averages over the last 1001 of 2001 rows, steps 100000 to 200000:
Atoms Temp Press PotEng KinEng TotEng Volume Density Lx Ly Lz
26858 300.048 70.7452 -2.94463e+06 24020.5 -2.9206e+06 251008 1.20218 50.067 50.067 100.134
Loop time of 57181.4 on 28 procs for 200000 steps with 26858 atoms

write_restart	restart.npt_equi
unfix npt_equi
#unfix bd
undump npt_dump

Please see the log.cite file for references relevant to this simulation
